/*--------------------------------*- C++ -*----------------------------------*\
| =========                 |                                                 |
| \\      /  F ield         | OpenFOAM: The Open Source CFD Toolbox           |
|  \\    /   O peration     | Version:  v2212                                 |
|   \\  /    A nd           | Website:  www.openfoam.com                      |
|    \\/     M anipulation  |                                                 |
\*---------------------------------------------------------------------------*/
FoamFile
{
    version     2.0;
    format      ascii;
    class       dictionary;
    object      turbulenceProperties;
}
// * * * * * * * * * * * * * * * * * * * * * * * * * * * * * * * * * * * * * //

simulationType          RAS;

RAS
{
    RASModel            kOmegaSSTLM;

    turbulence          on;

    printCoeffs         on;

     kMin          1e-12;
    omegaMin      1e-12;
    ReThetatMin   1e-10;

    kOmegaSSTLMCoeffs
    {
        maxLambdaIter   100;  // Increase from default 10
    }
}


// ************************************************************************* //
