/*--------------------------------*- C++ -*----------------------------------*\
| =========                 |                                                 |
| \\      /  F ield         | OpenFOAM: The Open Source CFD Toolbox           |
|  \\    /   O peration     | Version:  v2212                                 |
|   \\  /    A nd           | Website:  www.openfoam.com                      |
|    \\/     M anipulation  |                                                 |
\*---------------------------------------------------------------------------*/
FoamFile
{
    version     2.0;
    format      ascii;
    class       volScalarField;
    object      k;
}
// * * * * * * * * * * * * * * * * * * * * * * * * * * * * * * * * * * * * * //

kInlet          18.1656;

dimensions      [0 2 -2 0 0 0 0];

internalField   uniform $kInlet;

boundaryField
{
    inlet
    {
        type            fixedValue;
        value           $internalField;
    }

    outlet
    {
        type            zeroGradient;
        //type            inletOutlet;
        //inletValue      uniform $kInlet;
       // value           uniform $kInlet;
    }

    ps
    {
        type            kqRWallFunction;
        value           uniform $kInlet;
    }

    ss
    {
        type            kqRWallFunction;
        value           uniform $kInlet;
    }


    periodic1
    {
        type            cyclic;
    }


    periodic2
    {
        type            cyclic;
    }

    wall-fluid_domain
{
    type            zeroGradient;  // or fixedValue, as needed
}

    frontAndBackPlanes
    {
        type            empty;
    }
    #includeEtc "caseDicts/setConstraintTypes"
}
