/*--------------------------------*- C++ -*----------------------------------*\
| =========                 |                                                 |
| \\      /  F ield         | OpenFOAM: The Open Source CFD Toolbox           |
|  \\    /   O peration     | Version:  v2212                                 |
|   \\  /    A nd           | Website:  www.openfoam.com                      |
|    \\/     M anipulation  |                                                 |
\*---------------------------------------------------------------------------*/
FoamFile
{
    version     2.0;
    format      ascii;
    class       volScalarField;
    object      nut;
}
// * * * * * * * * * * * * * * * * * * * * * * * * * * * * * * * * * * * * * //

dimensions      [0 2 -1 0 0 0 0];

internalField   uniform 0;

boundaryField
{
    inlet
    {
        type            calculated;
        value           $internalField;
    }

    outlet
    {
        type            calculated;
        value           $internalField;
    }

     ps
    {
        type            nutkWallFunction;
        value           uniform 0;
    }

    ss
    {
        type            nutkWallFunction;
        value           uniform 0;
    }


    periodic1
    {
        type            cyclic;
    }

wall-fluid_domain
{
    type            zeroGradient;  // or fixedValue, as needed
}
    periodic2
    {
        type            cyclic;
    }

    frontAndBackPlanes
    {
        type            empty;
    }
    #includeEtc "caseDicts/setConstraintTypes"
}
