/*--------------------------------*- C++ -*----------------------------------*\
  =========                 |
  \\      /  F ield         | OpenFOAM: The Open Source CFD Toolbox
   \\    /   O peration     | Website:  https://openfoam.org
    \\  /    A nd           | Version:  9
     \\/     M anipulation  |
\*---------------------------------------------------------------------------*/
FoamFile
{
    version     2.0;
    format      ascii;
    class       volScalarField;
    object      k;
}
// * * * * * * * * * * * * * * * * * * * * * * * * * * * * * * * * * * * * * //

dimensions      [0 0 0 0 0 0 0];

internalField   uniform 220.6535;

boundaryField
{
    inlet
    {
        type            fixedValue;
        value           $internalField;
    }

    outlet
    {
        type            zeroGradient;
    }

    ss
    {
        type            zeroGradient;
    }

    ps
    {
        type            zeroGradient;
    }

    perioidc1
    {
        type            cyclic;
    }


    perioidc2
    {
        type            cyclic;
    
   }

    wall-fluid_domain
{
    type            zeroGradient;  // or fixedValue, as needed
}
    frontAndBackPlanes
    {
        type            empty;
    }
    #includeEtc "caseDicts/setConstraintTypes"
}
// ************************************************************************* //
