/*--------------------------------*- C++ -*----------------------------------* \
| =========                 |                                                 |
| \\      /  F ield         | OpenFOAM: The Open Source CFD Toolbox           |
|  \\    /   O peration     | Version:  v2212                                 |
|   \\  /    A nd           | Website:  www.openfoam.com                      |
|    \\/     M anipulation  |                                                 |
\*---------------------------------------------------------------------------*/
FoamFile
{
    version     2.0;
    format      ascii;
    class       volVectorField;
    object      U;
}
// * * * * * * * * * * * * * * * * * * * * * * * * * * * * * * * * * * * * * //

dimensions      [0 1 -1 0 0 0 0];

internalField   uniform (117 85 0);

boundaryField
{
    inlet
    {
        type            pressureDirectedInletOutletVelocity;
        inletDirection  uniform (0.807 0.5906 0);   // 36° direction
        value           uniform (117 85 0);         // Placeholder
    }

    outlet
    {
        type            zeroGradient;
        // type          inletOutlet;
        // inletValue    uniform (0 0 0);
        // value         uniform (0 0 0);
    }

    ss
    {
        type            noSlip;
    }

    ps
    {
        type            noSlip;
    }

    periodic1
    {
        type            cyclic;
    }

    periodic2
    {
        type            cyclic;
   }

    frontAndBackPlanes
    {
        type            empty;
    }

    wall-fluid_domain
{
    type            zeroGradient;  // or fixedValue, as needed
}
}
